 55
 
 Au  5.894262331049300E-010 -9.470948080188704E-011 -2.173095326751213E-010
 Au  4.371807171595280E-004  5.865527508130935E-003   2.72849229759018     
 Au  2.076149266765210E-005   2.44306087033080        1.21497259114910     
 Au   2.32114104797264       0.756925274053952        1.21822542321181     
 Au   1.43479349183175       -1.97163022872917        1.22423310414169     
 Au  -1.43411971019150       -1.97183467336361        1.22469322309315     
 Au  -2.32085802366783       0.756594475686182        1.21896991131291     
 Au -2.076031453283054E-005  -2.44306087050620       -1.21497259158544     
 Au  -2.32114104679544      -0.756925274236712       -1.21822542364213     
 Au  -1.43479349064915        1.97163022853458       -1.22423310458163     
 Au   1.43411971137384        1.97183467316716       -1.22469322353312     
 Au   2.32085802485583      -0.756594475872376       -1.21896991174609     
 Au -4.371795376007190E-004 -5.865527699609636E-003  -2.72849229803933     
 Au  8.745853827707295E-004  1.173406768144315E-002   5.45838596642067     
 Au  4.153305788683520E-005   4.88737651235576        2.43056920016336     
 Au   4.64347424816802        1.51423930983489        2.43707653497335     
 Au   2.87032390213577       -3.94427309918960        2.44909498240447     
 Au  -2.86897599398262       -3.94468209346401        2.45001545664358     
 Au  -4.64290805537513        1.51357754320648        2.43856589354610     
 Au -4.153188228745315E-005  -4.88737651252762       -2.43056920060982     
 Au  -4.64347424698414       -1.51423931001846       -2.43707653538908     
 Au  -2.87032390095480        3.94427309899323       -2.44909498286289     
 Au   2.86897599516022        3.94468209326110       -2.45001545706938     
 Au   4.64290805656333       -1.51357754338277       -2.43856589397349     
 Au -8.745842042960524E-004 -1.173406787852582E-002  -5.45838596684182     
 Au  4.661770537678507E-004   2.49296694488184        4.01438263918559     
 Au -4.661758778752134E-004  -2.49296694507765       -4.01438263963861     
 Au   2.36332859471781       0.776508536961635        4.01769396893414     
 Au  -2.36332859354615      -0.776508537157987       -4.01769396936215     
 Au   1.46104130628777       -2.00111625464647        4.02380968967545     
 Au  -1.46104130512123        2.00111625444634       -4.02380969011878     
 Au  -1.45946532323677       -2.00132437593506        4.02427808321907     
 Au   1.45946532441690        2.00132437573165       -4.02427808368140     
 Au  -2.36215039622593       0.776171789653386        4.01845184563020     
 Au   2.36215039741234      -0.776171789833979       -4.01845184604273     
 Au   2.36290468676660        3.25753345998145        2.47695570836594     
 Au  -2.36290468560416       -3.25753346014540       -2.47695570879310     
 Au   3.82347981600479       -1.23654973955789        2.48638275885065     
 Au  -3.82347981484381        1.23654973936743       -2.48638275927837     
 Au  6.858980586191915E-004  -4.01438265245080        2.49296687314720     
 Au -6.858968724160523E-004   4.01438265226081       -2.49296687358680     
 Au  -3.82250580446413       -1.23709460815672        2.48760902909326     
 Au   3.82250580565145        1.23709460797449       -2.48760902951966     
 Au  -2.36257430416902        3.25719671265750        2.47771358505158     
 Au   2.36257430536201       -3.25719671283795       -2.47771358548518     
 Au   1.45993150087653        4.49429132073237      -9.895444258918180E-003
 Au  -1.45993149970856       -4.49429132089404       9.895443817472876E-003
 Au   4.72547899152831       3.367472247563652E-004 -7.578768989103059E-004
 Au  -4.72547899037453      -3.367474074169645E-004  7.578764788612577E-004
 Au   1.46057512983092       -4.49408319960839       9.427050261646018E-003
 Au  -1.46057512864675        4.49408319944380      -9.427050708507282E-003
 Au   3.82279391854077        2.77783291280258      -6.584114514131629E-003
 Au  -3.82279391737681       -2.77783291298355       6.584114090652710E-003
 Au   3.82319170312011       -2.77728804438189       5.357843842346381E-003
 Au  -3.82319170192712        2.77728804419866      -5.357844278597696E-003
